Version 4
SHEET 1 1556 680
WIRE 96 -464 -272 -464
WIRE 96 -384 96 -464
WIRE 496 -304 96 -304
WIRE 720 -304 496 -304
WIRE 1072 -304 720 -304
WIRE -48 -272 -80 -272
WIRE 176 -272 32 -272
WIRE 576 -224 528 -224
WIRE 1088 -224 976 -224
WIRE 1216 -224 1168 -224
WIRE -80 -208 -80 -272
WIRE 48 -208 -80 -208
WIRE 96 -192 96 -304
WIRE 720 -192 720 -304
WIRE -32 -176 -48 -176
WIRE -16 -176 -32 -176
WIRE 48 -176 48 -208
WIRE 64 -176 48 -176
WIRE 496 -176 496 -304
WIRE 176 -160 176 -272
WIRE 176 -160 128 -160
WIRE 240 -160 176 -160
WIRE 336 -160 240 -160
WIRE 448 -160 448 -224
WIRE 448 -160 416 -160
WIRE 464 -160 448 -160
WIRE 576 -144 576 -224
WIRE 576 -144 528 -144
WIRE 624 -144 576 -144
WIRE 656 -144 624 -144
WIRE 464 -128 384 -128
WIRE -176 -112 -176 -176
WIRE -32 -112 -32 -176
WIRE -32 -112 -112 -112
WIRE 1072 -112 1072 -304
WIRE 976 -96 976 -224
WIRE 1040 -96 976 -96
WIRE 1216 -80 1216 -224
WIRE 1216 -80 1104 -80
WIRE 1248 -80 1216 -80
WIRE 1408 -80 1328 -80
WIRE 1536 -80 1472 -80
WIRE 720 -64 720 -96
WIRE 832 -64 720 -64
WIRE 1040 -64 832 -64
WIRE 832 -32 832 -64
WIRE 976 -32 976 -96
WIRE 96 0 96 -128
WIRE 496 0 496 -112
WIRE 496 0 96 0
WIRE -272 16 -272 -464
WIRE -176 16 -176 -32
WIRE -176 16 -272 16
WIRE 0 16 -176 16
WIRE 64 16 64 -144
WIRE 64 16 0 16
WIRE 96 16 96 0
WIRE 512 16 96 16
WIRE 1536 16 1536 -80
WIRE 96 32 96 16
WIRE -176 48 -176 16
WIRE 656 64 656 0
WIRE 720 64 656 64
WIRE 832 64 832 32
WIRE 832 64 720 64
WIRE 976 64 976 48
WIRE 976 64 832 64
WIRE 720 96 720 64
WIRE 0 112 0 16
WIRE 96 112 0 112
WIRE 384 112 384 -128
WIRE 384 112 96 112
WIRE 512 128 512 16
WIRE 1072 128 1072 -48
WIRE 1072 128 512 128
FLAG -176 48 0
FLAG 720 96 0
FLAG 1536 16 0
FLAG 240 -160 filtered_sig
IOPIN 240 -160 BiDir
FLAG 624 -144 amplified_sig
IOPIN 624 -144 BiDir
FLAG 1216 -80 delayed_sig
IOPIN 1216 -80 BiDir
SYMBOL voltage -176 -128 R0
SYMATTR InstName V1
SYMATTR Value wavefile = Recording5.wav
SYMBOL Opamps\\LT1097 96 -224 R0
SYMATTR InstName U1
SYMBOL res 48 -288 R90
WINDOW 0 0 56 VBottom 2
WINDOW 3 32 56 VTop 2
SYMATTR InstName R2
SYMATTR Value 15k
SYMBOL voltage 96 16 R0
WINDOW 123 0 0 Left 0
WINDOW 39 0 0 Left 0
SYMATTR InstName V2
SYMATTR Value -9
SYMBOL voltage 96 -288 R180
WINDOW 0 24 96 Left 2
WINDOW 3 24 16 Left 2
WINDOW 123 0 0 Left 0
WINDOW 39 0 0 Left 0
SYMATTR InstName V3
SYMATTR Value 9
SYMBOL cap 48 -192 R90
WINDOW 0 0 32 VBottom 2
WINDOW 3 32 32 VTop 2
SYMATTR InstName C1
SYMATTR Value 4.7µ
SYMBOL res 432 -176 R90
WINDOW 0 0 56 VBottom 2
WINDOW 3 32 56 VTop 2
SYMATTR InstName R3
SYMATTR Value 50
SYMBOL Opamps\\LT1097 496 -208 R0
SYMATTR InstName U2
SYMBOL res 544 -240 R90
WINDOW 0 0 56 VBottom 2
WINDOW 3 32 56 VTop 2
SYMATTR InstName R4
SYMATTR Value 1k
SYMBOL npn 656 -192 R0
SYMATTR InstName Q1
SYMATTR Value 2N3904
SYMBOL cap 816 -32 R0
SYMATTR InstName C2
SYMATTR Value 47µ
SYMBOL Opamps\\LT1097 1072 -144 R0
SYMATTR InstName U3
SYMBOL res 1184 -240 R90
WINDOW 0 0 56 VBottom 2
WINDOW 3 32 56 VTop 2
SYMATTR InstName R7
SYMATTR Value 10k
SYMBOL res 960 -48 R0
SYMATTR InstName R6
SYMATTR Value 10
SYMBOL res 1344 -96 R90
WINDOW 0 0 56 VBottom 2
WINDOW 3 32 56 VTop 2
SYMATTR InstName R8
SYMATTR Value 100
SYMBOL LED 1408 -64 R270
WINDOW 0 32 32 VTop 2
WINDOW 3 0 32 VBottom 2
SYMATTR InstName D1
SYMATTR Value NSPW500BS
SYMATTR Description Diode
SYMATTR Type diode
SYMBOL pot -112 -160 R270
WINDOW 0 31 -65 Invisible 2
WINDOW 39 39 -94 VRight 2
SYMATTR InstName X1
SYMATTR SpiceLine R=1k Val=10k
SYMBOL pot 704 0 R0
WINDOW 0 31 -65 Invisible 2
WINDOW 39 -66 -76 VRight 2
SYMATTR InstName X2
SYMATTR SpiceLine R=47k Val=10k
TEXT -272 136 Left 2 !.tran 15
